[General]
network = trafficdensityandintersectionmonitoringsystem.simulations.TrafficNetwork
sim-time-limit = 100s

**.scalar-recording = true
**.vector-recording = true