[General]
network = trafficdensityandintersectionmonitoringsystem.simulations.TrafficNetwork
sim-time-limit = 5000s

repeat = 10
seed-set = ${repetition}

**.scalar-recording = true
**.vector-recording = true